*****
 OpenBabel04132113293D

 18 19  0  0  0  0  0  0  0  0999 V2000
    5.5474   -9.8864   21.4669 C   0  0  0  0  0  0  0  0  0  0  0  0
    4.9792   -9.2310   20.3590 C   0  0  0  0  0  0  0  0  0  0  0  0
    4.7106   -7.8718   20.4775 C   0  0  0  0  0  0  0  0  0  0  0  0
    4.6155   -5.8949   21.4348 N   0  0  0  0  0  0  0  0  0  0  0  0
    4.1287   -5.8446   20.1728 C   0  0  0  0  0  0  0  0  0  0  0  0
    4.1747   -7.0530   19.5555 N   0  0  0  0  0  0  0  0  0  0  0  0
    4.9790   -7.1742   21.6171 C   0  0  0  0  0  0  0  0  0  0  0  0
    5.5447   -7.7881   22.7440 C   0  0  0  0  0  0  0  0  0  0  0  0
    5.8294   -9.1700   22.6545 C   0  0  0  0  0  0  0  0  0  0  0  0
    5.8483   -7.0383   24.0090 C   0  0  0  0  0  0  0  0  0  0  0  0
    5.5773   -5.9669   23.9442 H   0  0  0  0  0  0  0  0  0  0  0  0
    6.9345   -7.1055   24.2275 H   0  0  0  0  0  0  0  0  0  0  0  0
    5.2796   -7.4865   24.8504 H   0  0  0  0  0  0  0  0  0  0  0  0
    6.2667   -9.6899   23.4979 H   0  0  0  0  0  0  0  0  0  0  0  0
    5.7698  -10.9442   21.4104 H   0  0  0  0  0  0  0  0  0  0  0  0
    4.7589   -9.7679   19.4453 H   0  0  0  0  0  0  0  0  0  0  0  0
    4.6874   -5.1540   22.0792 H   0  0  0  0  0  0  0  0  0  0  0  0
    3.7644   -4.9863   19.7306 H   0  0  0  0  0  0  0  0  0  0  0  0
  1  2  2  0  0  0  0
  1  9  1  0  0  0  0
  1 15  1  0  0  0  0
  2  3  1  0  0  0  0
  2 16  1  0  0  0  0
  3  6  1  0  0  0  0
  3  7  2  0  0  0  0
  4  5  1  0  0  0  0
  4  7  1  0  0  0  0
  4 17  1  0  0  0  0
  5  6  2  0  0  0  0
  5 18  1  0  0  0  0
  7  8  1  0  0  0  0
  8  9  2  0  0  0  0
  8 10  1  0  0  0  0
  9 14  1  0  0  0  0
 10 11  1  0  0  0  0
 10 12  1  0  0  0  0
 10 13  1  0  0  0  0
M  END
$$$$
